/*---------------------------------------------------------------------------*\
| =========                 |                                                 |
| \\      /  F ield         | OpenFOAM: The Open Source CFD Toolbox           |
|  \\    /   O peration     | Version:  5.x                                   |
|   \\  /    A nd           | Web:      www.OpenFOAM.org                      |
|    \\/     M anipulation  |                                                 |
\*---------------------------------------------------------------------------*/
Build  : 5.x-197d9d3bf20a
Exec   : mergeMeshes -overwrite steady/ circle-ext/
Date   : May 20 2018
Time   : 20:47:55
Host   : "andrea-CM6870"
PID    : 18242
I/O    : uncollated
Case   : /home/andrea/OpenFOAM/andrea-5.0/run/CFDProject/mesh-composite
nProcs : 1
sigFpe : Enabling floating point exception trapping (FOAM_SIGFPE).
fileModificationChecking : Monitoring run-time modified files using timeStampMaster (fileModificationSkew 10)
allowSystemOperations : Allowing user-supplied system call operations

// * * * * * * * * * * * * * * * * * * * * * * * * * * * * * * * * * * * * * //
Master:      "steady"  region region0
mesh to add: "circle-ext"  region region0

Create Times
Reading master mesh for time = 0
Create mesh

Reading mesh to add for time = 0
Create mesh

Writing combined mesh to 0
patch names: 
16
(
back
walls
inlet
front
outlet
AMI-ext-out
AMI-ext-in
AMI-int0-out
AMI-int1-out
AMI-int2-out
blade0
AMI-int0-in
blade1
AMI-int1-in
blade2
AMI-int2-in
)

patch dicts: 
16
(

{
    type            wall;
    inGroups        1 ( wall );
    nFaces          4512;
    startFace       66080;
}


{
    type            wall;
    inGroups        1 ( wall );
    nFaces          80;
    startFace       70592;
}


{
    type            patch;
    nFaces          40;
    startFace       70672;
}


{
    type            wall;
    inGroups        1 ( wall );
    nFaces          4512;
    startFace       70712;
}


{
    type            patch;
    nFaces          40;
    startFace       75224;
}


{
    type            wall;
    inGroups        1 ( wall );
    nFaces          4000;
    startFace       75264;
}


{
    type            wall;
    inGroups        1 ( wall );
    nFaces          3968;
    startFace       351682;
}


{
    type            wall;
    inGroups        1 ( wall );
    nFaces          1472;
    startFace       355650;
}


{
    type            wall;
    inGroups        1 ( wall );
    nFaces          1472;
    startFace       357122;
}


{
    type            wall;
    inGroups        1 ( wall );
    nFaces          1472;
    startFace       358594;
}


{
    type            wall;
    inGroups        2 ( blades wall );
    nFaces          3184;
    startFace       360066;
}


{
    type            wall;
    inGroups        1 ( wall );
    nFaces          1440;
    startFace       363250;
}


{
    type            wall;
    inGroups        2 ( blades wall );
    nFaces          3648;
    startFace       364690;
}


{
    type            wall;
    inGroups        1 ( wall );
    nFaces          1440;
    startFace       368338;
}


{
    type            wall;
    inGroups        2 ( blades wall );
    nFaces          3184;
    startFace       369778;
}


{
    type            wall;
    inGroups        1 ( wall );
    nFaces          1440;
    startFace       372962;
}

)

point zone names: 0()
face zone names: 0()
cell zone names: 
5
(
cellZone-steady
cellZone-circle-ext
cellZone-blade0
cellZone-blade1
cellZone-blade2
)

Copying old patches
Adding new patches. 
Adding new cellZones. 
End

